OPT_V9/My_campus_w_initial_sub_3_active_28_03_16_28/powerflow_results_t4.txt
Pandapower Network Debug Info
==================================================

BUS:
       vm_pu  va_degree      p_mw        q_mvar
0   1.001540  -0.119813 -0.000037 -3.492320e-03
1   1.002752  -0.065747 -0.000998 -7.882277e-07
2   1.003704  -0.023300 -0.001057  0.000000e+00
3   1.000607  -0.220110  0.002142 -9.570305e-04
4   0.999350  -0.094258  0.001056  8.942049e-05
5   1.001338  -0.032926  0.000215 -9.350562e-04
6   1.002550  -0.013547 -0.001057 -4.342718e-04
7   1.001762  -0.106057 -0.000441 -3.055141e-03
8   1.000722  -0.043067 -0.002119 -5.163074e-03
9   0.999909   0.000689  0.008603  1.117383e-02
10  0.999897   0.000775  0.009717  9.993389e-03
11  0.999888   0.000828  0.010522  1.009803e-02
12  0.999855  -0.001324  0.010812  5.426368e-03
13  0.999825  -0.001192  0.012388  1.062257e-02
14  0.999835  -0.001219  0.015427  1.252335e-02
15  0.999950   0.000300  0.000000  0.000000e+00
16  0.999950   0.000298  0.000000  0.000000e+00
17  0.999860  -0.001264  0.000000  0.000000e+00
18  0.999860  -0.001270  0.000000  0.000000e+00
19  1.000000   0.000000 -0.028931 -3.183033e-02
20  1.000000   0.000004  0.000000  0.000000e+00
21  1.000000   0.000000 -0.036323 -2.409024e-02
22  1.000000   0.000003  0.000000  0.000000e+00
--------------------------------------------------

LINE:
    p_from_mw   q_from_mvar   p_to_mw     q_to_mvar         pl_mw       ql_mvar  i_from_ka   i_to_ka      i_ka  vm_from_pu  va_from_degree  vm_to_pu  va_to_degree  loading_percent
0    0.028921  2.783035e-02 -0.028920 -2.782912e-02  1.575738e-06  1.228629e-06   0.001545  0.001545  0.001545    1.000000        0.000004  0.999950      0.000300         0.671681
1    0.036313  2.009026e-02 -0.036309 -2.008664e-02  4.632715e-06  3.612204e-06   0.001597  0.001597  0.001597    1.000000        0.000003  0.999860     -0.001264         0.694501
2    0.028844  3.126664e-02 -0.028842 -3.126555e-02  1.399446e-06  1.091171e-06   0.001637  0.001637  0.001637    0.999950        0.000300  0.999909      0.000689         0.711917
3    0.010812  5.426408e-03 -0.010812 -5.426368e-03  5.062249e-08  3.947119e-08   0.000466  0.000466  0.000466    0.999860       -0.001264  0.999855     -0.001324         0.202472
4    0.027816  2.314659e-02 -0.027816 -2.314603e-02  7.162340e-07  5.584595e-07   0.001393  0.001393  0.001393    0.999860       -0.001264  0.999835     -0.001219         0.605670
5    0.000066 -4.437375e-03 -0.000057  4.444558e-03  9.212496e-06  7.183134e-06   0.006406  0.006406  0.006406    0.999950        0.000298  1.001540     -0.119813         2.785140
6   -0.000839 -1.366890e-03  0.000841  1.368446e-03  1.995685e-06  1.556068e-06   0.002315  0.002315  0.002315    0.999860       -0.001270  1.001338     -0.032926         1.006509
7   -0.000434 -3.050139e-03  0.000441  3.055141e-03  6.414695e-06  5.001643e-06   0.004448  0.004448  0.004448    0.999860       -0.001270  1.001762     -0.106057         1.933715
8   -0.001056 -5.068990e-03  0.001061  5.072586e-03  4.611046e-06  3.595309e-06   0.007475  0.007475  0.007475    0.999860       -0.001270  1.000722     -0.043067         3.249870
9   -0.020239 -2.009150e-02  0.020239  2.009172e-02  2.813082e-07  2.193406e-07   0.001098  0.001098  0.001098    0.999897        0.000775  0.999909      0.000689         0.477293
10  -0.010522 -1.009803e-02  0.010522  1.009811e-02  1.040412e-07  8.112266e-08   0.000561  0.000561  0.000561    0.999888        0.000828  0.999897      0.000775         0.244084
11   0.012388  1.062268e-02 -0.012388 -1.062257e-02  1.302881e-07  1.015878e-07   0.000628  0.000628  0.000628    0.999835       -0.001219  0.999825     -0.001192         0.273142
12   0.002054  5.850221e-09 -0.002052  1.930369e-06  2.483235e-06  1.936219e-06   0.002957  0.002957  0.002957    1.002752       -0.065747  1.001540     -0.119813         1.285693
13  -0.002142  9.570305e-04  0.002146 -9.541679e-04  3.671343e-06  2.862606e-06   0.003385  0.003385  0.003385    1.000607       -0.220110  1.001540     -0.119813         1.471561
14   0.001057  2.831548e-11 -0.001056  7.823921e-07  1.003468e-06  7.824204e-07   0.001520  0.001520  0.001520    1.003704       -0.023300  1.002752     -0.065747         0.660962
15   0.001058  9.048842e-05 -0.001056 -8.942049e-05  1.369634e-06  1.067926e-06   0.001531  0.001531  0.001531    1.000722       -0.043067  0.999350     -0.094258         0.665813
16   0.001057  4.342718e-04 -0.001056 -4.333897e-04  1.131366e-06  8.821448e-07   0.001645  0.001645  0.001645    1.002550       -0.013547  1.001338     -0.032926         0.715383
--------------------------------------------------

TRAFO:
    p_hv_mw  q_hv_mvar   p_lv_mw  q_lv_mvar    pl_mw  ql_mvar   i_hv_ka   i_lv_ka  vm_hv_pu  va_hv_degree  vm_lv_pu  va_lv_degree  loading_percent
0  0.000076  -0.003438 -0.000066   0.004437  0.00001    0.001  0.000132  0.006406   0.99995      0.000300   0.99995      0.000298         0.044381
1 -0.002319  -0.008486  0.002329   0.009486  0.00001    0.001  0.000339  0.014101   0.99986     -0.001264   0.99986     -0.001270         0.097692
2  0.028931   0.031830 -0.028921  -0.027830  0.00001    0.004  0.000355  0.001545   1.00000      0.000000   1.00000      0.000004         0.107534
3  0.036323   0.024090 -0.036313  -0.020090  0.00001    0.004  0.000359  0.001597   1.00000      0.000000   1.00000      0.000003         0.108965
--------------------------------------------------
